Version 4.1
SHEET 1 1924 680
WIRE 1776 -384 1632 -384
WIRE 1920 -384 1776 -384
WIRE 1632 -368 1632 -384
WIRE 1632 -272 1632 -304
WIRE 1632 -272 1584 -272
WIRE 1680 -272 1632 -272
WIRE 1776 -272 1776 -304
WIRE 1776 -272 1744 -272
WIRE 1824 -272 1776 -272
WIRE 1632 -256 1632 -272
WIRE 1920 -256 1920 -384
WIRE 1920 -256 1888 -256
WIRE 1824 -240 1776 -240
WIRE 0 -128 -48 -128
WIRE 128 -112 64 -112
WIRE 224 -112 128 -112
WIRE 384 -112 304 -112
WIRE 448 -112 384 -112
WIRE 592 -112 528 -112
WIRE 128 -64 128 -112
WIRE -48 64 -48 -128
WIRE 128 64 128 16
WIRE 128 64 -48 64
WIRE 128 96 128 64
WIRE 384 96 384 -112
WIRE 464 96 384 96
WIRE 528 112 512 112
WIRE 592 112 592 -112
WIRE 592 112 528 112
WIRE 656 112 592 112
WIRE 464 128 384 128
WIRE 128 208 128 176
WIRE 128 208 -48 208
WIRE 128 256 128 208
WIRE -48 400 -48 208
WIRE 0 400 -48 400
WIRE 64 416 48 416
WIRE 128 416 128 336
WIRE 128 416 64 416
WIRE 240 416 128 416
WIRE 384 416 384 128
WIRE 384 416 320 416
WIRE 464 416 384 416
WIRE 592 416 544 416
WIRE 592 448 592 416
FLAG 1856 -288 +5V
FLAG 1856 -224 0
FLAG 592 448 0
FLAG 32 -80 0
FLAG 32 448 0
FLAG 496 144 0
FLAG -160 0 0
FLAG -128 512 0
FLAG -736 64 0
FLAG -736 -16 5v
FLAG 32 -144 5v
FLAG 32 384 5v
FLAG 496 80 5v
SYMBOL OpAmps\\UniversalOpAmp 32 -112 R0
SYMATTR InstName U1
SYMBOL OpAmps\\UniversalOpAmp 32 416 R0
SYMATTR InstName U2
SYMBOL OpAmps\\UniversalOpAmp 496 112 R0
SYMATTR InstName U3
SYMBOL res 112 -80 R0
SYMATTR InstName R1
SYMBOL res 112 80 R0
SYMATTR InstName R2
SYMBOL res 112 240 R0
SYMATTR InstName R3
SYMBOL res 320 -128 R90
WINDOW 0 0 56 VBottom 2
WINDOW 3 32 56 VTop 2
SYMATTR InstName R4
SYMBOL res 336 400 R90
WINDOW 0 0 56 VBottom 2
WINDOW 3 32 56 VTop 2
SYMATTR InstName R5
SYMBOL res 544 -128 R90
WINDOW 0 -3 60 VBottom 2
WINDOW 3 32 56 VTop 2
SYMATTR InstName R6
SYMBOL res 448 432 R270
WINDOW 0 32 56 VTop 2
WINDOW 3 0 56 VBottom 2
SYMATTR InstName R7
SYMBOL res 1600 -288 R90
WINDOW 0 0 56 VBottom 2
WINDOW 3 32 56 VTop 2
SYMATTR InstName R8
SYMATTR Value 3k
SYMBOL cap 1616 -368 R0
SYMATTR InstName C1
SYMATTR Value 1µ
SYMBOL cap 1744 -288 R90
WINDOW 0 0 32 VBottom 2
WINDOW 3 32 32 VTop 2
SYMATTR InstName C2
SYMATTR Value 1µ
SYMBOL res 1760 -400 R0
SYMATTR InstName R9
SYMATTR Value 32k
SYMBOL OpAmps\\UniversalOpAmp 1856 -256 R0
SYMATTR InstName U4
SYMBOL voltage -736 -32 R0
SYMATTR InstName V1
SYMBOL voltage -160 -96 R0
SYMATTR InstName V2
SYMBOL voltage -128 416 R0
SYMATTR InstName V3
